tests/golden/phase8/show_currents_elem.txt

CIRCUIT ELEMENT CURRENTS

(Currents into element from indicated bus)

Power Delivery Elements

  Bus Phase    Magnitude, A     Angle      (Real)   +j  (Imag)

ELEMENT = "Vsource.source"
SOURCEBUS     1           17.975 /_  179.1 =    -17.973 +j   0.28209
SOURCEBUS     2           19.745 /_   71.3 =     6.3149 +j    18.707
SOURCEBUS     3           22.282 /_  -58.5 =     11.658 +j    -18.99
------------
SOURCEBUS     0           17.975 /_   -0.9 =     17.973 +j  -0.28209
SOURCEBUS     0           19.745 /_ -108.7 =    -6.3149 +j   -18.707
SOURCEBUS     0           22.282 /_  121.5 =    -11.658 +j     18.99

ELEMENT = "Transformer.sub"
SOURCEBUS     1           17.975 /_   -0.9 =     17.973 +j  -0.28209
SOURCEBUS     2           19.745 /_ -108.7 =    -6.3149 +j   -18.707
SOURCEBUS     3           22.282 /_  121.5 =    -11.658 +j     18.99
SOURCEBUS     0                0 /_    0.0 =          0 +j         0
SOURCEBUS Resid        1.029E-10 /_ -135.0 =   -7.276E-11 +j -7.276E-11
------------
650      1           594.23 /_  151.3 =    -521.25 +j    285.31
650      2           434.75 /_   38.7 =     339.31 +j     271.8
650      3           625.03 /_  -86.6 =      36.94 +j   -623.93
650      0           159.67 /_   24.7 =     145.01 +j    66.829
650  Resid        5.0851E-9 /_   15.9 =   4.8894E-9 +j  1.397E-9

ELEMENT = "Transformer.reg1"
650      1           594.23 /_  -28.7 =     521.25 +j   -285.31
650      0           594.23 /_  151.3 =    -521.25 +j    285.31
------------
RG60     1           562.58 /_  151.3 =    -493.49 +j    270.11
RG60     0           562.58 /_  -28.7 =     493.49 +j   -270.11

ELEMENT = "Transformer.reg2"
650      2           434.75 /_ -141.3 =    -339.31 +j    -271.8
650      0           434.75 /_   38.7 =     339.31 +j     271.8
------------
RG60     2           419.03 /_   38.7 =     327.04 +j    261.98
RG60     0           419.03 /_ -141.3 =    -327.04 +j   -261.98

ELEMENT = "Transformer.reg3"
650      3           625.03 /_   93.4 =     -36.94 +j    623.93
650      0           625.03 /_  -86.6 =      36.94 +j   -623.93
------------
RG60     3           591.74 /_  -86.6 =     34.973 +j   -590.71
RG60     0           591.74 /_   93.4 =    -34.973 +j    590.71

ELEMENT = "Transformer.xfm1"
633      1           81.894 /_  -37.8 =     64.719 +j    -50.18
633      2           61.932 /_ -159.1 =    -57.874 +j    -22.05
633      3           63.569 /_   80.4 =     10.603 +j    62.679
633      0           19.891 /_  151.3 =    -17.448 +j    9.5514
633  Resid        1.1246E-6 /_    4.4 =   1.1213E-6 +j 8.6224E-8
------------
634      1           709.75 /_  142.2 =     -560.9 +j    434.89
634      2           536.75 /_   20.9 =     501.58 +j     191.1
634      3           550.93 /_  -99.6 =    -91.893 +j   -543.22
634      0           172.39 /_  -28.7 =     151.21 +j   -82.779
634  Resid      0.000010813 /_   -4.8 =   0.000010775 +j -9.1218E-7

ELEMENT = "Capacitor.cap1"
675      1           81.296 /_   84.4 =     7.9652 +j    80.905
675      2           86.822 /_  -32.6 =     73.169 +j   -46.736
675      3           80.187 /_ -154.0 =    -72.069 +j   -35.156
675  Resid            9.119 /_  173.8 =     -9.0654 +j   0.98713
------------
675      0           81.296 /_  -95.6 =    -7.9652 +j   -80.905
675      0           86.822 /_  147.4 =    -73.169 +j    46.736
675      0           80.187 /_   26.0 =     72.069 +j    35.156
675  Resid            9.119 /_   -6.2 =      9.0654 +j  -0.98713

ELEMENT = "Capacitor.cap2"
611      3           40.065 /_ -154.3 =     -36.09 +j   -17.399
------------
611      0           40.065 /_   25.7 =      36.09 +j    17.399

ELEMENT = "Line.650632"
RG60     1           562.58 /_  -28.7 =     493.49 +j   -270.11
RG60     2           419.03 /_ -141.3 =    -327.04 +j   -261.98
RG60     3           591.74 /_   93.4 =    -34.973 +j    590.71
RG60 Resid           143.95 /_ -156.0 =     -131.48 +j    -58.62
------------
632      1           562.58 /_  151.3 =    -493.49 +j    270.11
632      2           419.03 /_   38.7 =     327.04 +j    261.98
632      3           591.74 /_  -86.6 =     34.972 +j   -590.71
632  Resid           143.95 /_   24.0 =      131.48 +j     58.62

ELEMENT = "Line.632670"
632      1           481.89 /_  -27.2 =     428.77 +j   -219.93
632      2           218.05 /_ -135.2 =     -154.8 +j   -153.57
632      3           480.27 /_   99.6 =     -79.91 +j    473.57
632  Resid           218.35 /_ -152.7 =     -194.06 +j   -100.07
------------
670      1           481.89 /_  152.8 =    -428.77 +j    219.93
670      2           218.05 /_   44.8 =      154.8 +j    153.57
670      3           480.27 /_  -80.4 =      79.91 +j   -473.57
670  Resid           218.35 /_   27.3 =      194.06 +j    100.07

ELEMENT = "Line.670671"
670      1           473.77 /_  -27.0 =     421.99 +j   -215.37
670      2           188.82 /_ -132.6 =    -127.69 +j   -139.09
670      3            424.9 /_  101.3 =     -82.95 +j    416.73
670  Resid           220.32 /_ -163.6 =     -211.34 +j   -62.264
------------
671      1           473.77 /_  153.0 =    -421.99 +j    215.37
671      2           188.82 /_   47.4 =     127.69 +j    139.09
671      3            424.9 /_  -78.7 =      82.95 +j   -416.73
671  Resid           220.32 /_   16.4 =      211.34 +j    62.264

ELEMENT = "Line.671680"
671      1       0.00057229 /_   85.7 =  0.000043053 +j 0.00057067
671      2       0.00059752 /_  -32.9 =  0.00050156 +j -0.00032475
671      3       0.00057207 /_ -154.5 =  -0.00051631 +j -0.00024635
671  Resid      0.000028302 /_  179.1 =   -0.000028299 +j 4.2911E-7
------------
680      1       2.5724E-12 /_  -45.0 =  1.819E-12 +j -1.819E-12
680      2       7.4999E-12 /_  -14.0 =  7.276E-12 +j -1.819E-12
680      3                0 /_    0.0 =          0 +j         0
680  Resid       9.7956E-12 /_  158.2 =   -9.0949E-12 +j 3.638E-12

ELEMENT = "Line.632633"
632      1           81.894 /_  -37.8 =     64.719 +j    -50.18
632      2           61.932 /_ -159.1 =    -57.874 +j    -22.05
632      3           63.569 /_   80.4 =     10.603 +j    62.679
632  Resid           19.891 /_  151.3 =     -17.448 +j    9.5514
------------
633      1           81.894 /_  142.2 =    -64.719 +j     50.18
633      2           61.932 /_   20.9 =     57.874 +j     22.05
633      3           63.569 /_  -99.6 =    -10.603 +j   -62.679
633  Resid           19.891 /_  -28.7 =      17.448 +j   -9.5514

ELEMENT = "Line.632645"
632      3           64.377 /_   57.8 =     34.335 +j    54.456
632      2           143.31 /_ -142.9 =    -114.37 +j   -86.359
632  Resid           86.156 /_   21.7 =      80.032 +j    31.902
------------
645      3           64.377 /_ -122.2 =    -34.335 +j   -54.457
645      2           143.31 /_   37.1 =     114.37 +j    86.359
645  Resid           86.156 /_ -158.3 =     -80.032 +j   -31.902

ELEMENT = "Line.645646"
645      3           64.377 /_   57.8 =     34.335 +j    54.457
645      2           64.377 /_ -122.2 =    -34.335 +j   -54.457
645  Resid       0.00011397 /_   88.8 =   2.4133E-6 +j 0.00011395
------------
646      3           64.377 /_ -122.2 =    -34.335 +j   -54.457
646      2           64.377 /_   57.8 =     34.335 +j    54.457
646  Resid       4.9188E-12 /_ -123.7 =   -2.7285E-12 +j -4.0927E-12

ELEMENT = "Line.692675"
692      1           206.84 /_   -5.5 =     205.88 +j    -19.97
692      2           68.507 /_  -55.9 =     38.389 +j   -56.741
692      3           125.91 /_  110.8 =    -44.687 +j    117.71
692  Resid           203.75 /_ -168.4 =     -199.58 +j   -41.002
------------
675      1           206.84 /_  174.5 =    -205.87 +j    20.002
675      2           68.476 /_  124.1 =     -38.36 +j    56.723
675      3           125.91 /_  -69.2 =     44.659 +j   -117.73
675  Resid           203.74 /_   11.6 =      199.57 +j    41.003

ELEMENT = "Line.671684"
671      1           62.697 /_  -39.2 =     48.591 +j   -39.622
671      3           71.153 /_  121.2 =    -36.824 +j    60.883
671  Resid             24.3 /_ -119.0 =     -11.767 +j   -21.261
------------
684      1           62.697 /_  140.8 =    -48.591 +j    39.622
684      3           71.153 /_  -58.8 =     36.824 +j   -60.883
684  Resid             24.3 /_   61.0 =      11.767 +j    21.261

ELEMENT = "Line.684611"
684      3           71.153 /_  121.2 =    -36.824 +j    60.883
------------
611      3           71.153 /_  -58.8 =     36.824 +j   -60.883

ELEMENT = "Line.684652"
684      1           62.697 /_  -39.2 =     48.591 +j   -39.622
------------
652      1           62.715 /_  140.8 =    -48.588 +j    39.653

ELEMENT = "Line.671692"
671      1           230.93 /_  -18.4 =     219.09 +j   -73.007
671      2           68.507 /_  -55.9 =     38.389 +j   -56.741
671      3            180.3 /_  108.7 =    -57.901 +j    170.75
671  Resid           203.75 /_ -168.4 =     -199.58 +j   -41.002
------------
692      1           230.93 /_  161.6 =    -219.09 +j    73.007
692      2           68.507 /_  124.1 =    -38.389 +j    56.741
692      3            180.3 /_  -71.3 =     57.901 +j   -170.75
692  Resid           203.75 /_   11.6 =      199.58 +j    41.002

= = = = = = = = = = = = = = = = = = =  = = = = = = = = = = =  = =

Power Conversion Elements

  Bus Phase    Magnitude, A     Angle      (Real)   +j  (Imag)

ELEMENT = "Load.671"
671      1           185.38 /_  -33.7 =     154.31 +j   -102.74
671      2           185.38 /_ -153.6 =    -166.08 +j   -82.352
671      3           185.47 /_   86.4 =     11.776 +j    185.09

ELEMENT = "Load.634a"
634      1           709.75 /_  -37.8 =      560.9 +j    -434.9
634      0           709.75 /_  142.2 =     -560.9 +j     434.9

ELEMENT = "Load.634b"
634      2           536.75 /_ -159.1 =    -501.58 +j    -191.1
634      0           536.75 /_   20.9 =     501.58 +j     191.1

ELEMENT = "Load.634c"
634      3           550.93 /_   80.4 =     91.893 +j    543.21
634      0           550.93 /_  -99.6 =    -91.893 +j   -543.21

ELEMENT = "Load.645"
645      2           86.156 /_ -158.3 =    -80.032 +j   -31.902
645      0           86.156 /_   21.7 =     80.032 +j    31.902

ELEMENT = "Load.646"
646      2           64.377 /_ -122.2 =    -34.335 +j   -54.457
646      3           64.377 /_   57.8 =     34.335 +j    54.457

ELEMENT = "Load.692"
692      3           54.658 /_  104.0 =    -13.214 +j    53.037
692      1           54.658 /_  -76.0 =     13.214 +j   -53.037

ELEMENT = "Load.675a"
675      1           222.15 /_  -27.0 =     197.91 +j   -100.91
675      0           222.15 /_  153.0 =    -197.91 +j    100.91

ELEMENT = "Load.675b"
675      2           36.214 /_ -164.0 =     -34.81 +j   -9.9872
675      0           36.214 /_   16.0 =      34.81 +j    9.9872

ELEMENT = "Load.675c"
675      3           155.32 /_   79.8 =     27.411 +j    152.88
675      0           155.32 /_ -100.2 =    -27.411 +j   -152.88

ELEMENT = "Load.611"
611      3           78.285 /_   90.5 =   -0.73373 +j    78.281
611      0           78.285 /_  -89.5 =    0.73373 +j   -78.281

ELEMENT = "Load.652"
652      1           62.715 /_  -39.2 =     48.588 +j   -39.653
652      0           62.715 /_  140.8 =    -48.588 +j    39.653

ELEMENT = "Load.670a"
670      1            8.179 /_  -33.9 =     6.7869 +j   -4.5643
670      0            8.179 /_  146.1 =    -6.7869 +j    4.5643

ELEMENT = "Load.670b"
670      2            30.73 /_ -151.9 =    -27.108 +j   -14.472
670      0            30.73 /_   28.1 =     27.108 +j    14.472

ELEMENT = "Load.670c"
670      3           56.927 /_   86.9 =     3.0408 +j    56.846
670      0           56.927 /_  -93.1 =    -3.0408 +j   -56.846

